*LTspice
*
*MAX6324
*uP Supervisory Circuits with Windowed (Min/Max) Watchdog and Manual Reset
*AE01022324
*
*netlist
.include MAX6324.cir
*
*params
.param VSOURCE=3.3
.param RPU=100k
*
.param VH=0
.param VL=3.3
.param TD=10m
.param TR=1n
.param TF=1n
*
.param FREQ=120
.param NCYCLES=20
.param PERCENT=50
*
.param CYCLE=1/FREQ
.param DUTY=(PERCENT/100)*CYCLE
.param X_BASE=(CYCLE*NCYCLES)+TD
*
*transient response
.tran 0 {X_BASE} 0 ;startup uic
*
*.backanno
*.op
*fast twd1: 1-1.5ms (1KHz-666.66Hz)
*slow twd2: 10-15ms (100Hz-66.66Hz)
